/*---------------------------------------------------------------------------*\
| =========                 |                                                 |
| \\      /  F ield         | OpenFOAM: The Open Source CFD Toolbox           |
|  \\    /   O peration     | Version:  2212                                  |
|   \\  /    A nd           | Website:  www.openfoam.com                      |
|    \\/     M anipulation  |                                                 |
\*---------------------------------------------------------------------------*/
Build  : _f8e05934-20230403 OPENFOAM=2212 patch=230110 version=2212
Arch   : "LSB;label=32;scalar=64"
Exec   : topoSet -dict system/topoSetDict.5
Date   : Jul 02 2024
Time   : 21:44:07
Host   : DESKTOP-K8TIARQ
PID    : 10518
I/O    : uncollated
Case   : /home/name/CarBattery/S60_M_0.30_New
nProcs : 1
trapFpe: Floating point exception trapping enabled (FOAM_SIGFPE).
fileModificationChecking : Monitoring run-time modified files using timeStampMaster (fileModificationSkew 5, maxFileModificationPolls 20)
allowSystemOperations : Allowing user-supplied system call operations

// * * * * * * * * * * * * * * * * * * * * * * * * * * * * * * * * * * * * * //
Create time

Create polyMesh for time = 0

Reading topoSetDict.5

Time = 0
    mesh not changed.
Created cellSet c0
    Applying source boxToCell
    Adding cells with centre within boxes 1((-1 -0.9015 -0.1) (3 0 0.35))
    cellSet c0 now size 132440

End

