/*---------------------------------------------------------------------------*\
| =========                 |                                                 |
| \\      /  F ield         | OpenFOAM: The Open Source CFD Toolbox           |
|  \\    /   O peration     | Version:  2212                                  |
|   \\  /    A nd           | Website:  www.openfoam.com                      |
|    \\/     M anipulation  |                                                 |
\*---------------------------------------------------------------------------*/
Build  : _f8e05934-20230403 OPENFOAM=2212 patch=230110 version=2212
Arch   : "LSB;label=32;scalar=64"
Exec   : snappyHexMesh -parallel -overwrite
Date   : Jul 02 2024
Time   : 21:44:35
Host   : DESKTOP-K8TIARQ
PID    : 10613
I/O    : uncollated
Case   : /home/name/CarBattery/S60_M_0.30_New
nProcs : 12
Hosts  :
(
    (DESKTOP-K8TIARQ 12)
)
Pstream initialized with:
    floatTransfer      : 0
    nProcsSimpleSum    : 0
    commsType          : nonBlocking
    polling iterations : 0
trapFpe: Floating point exception trapping enabled (FOAM_SIGFPE).
fileModificationChecking : Monitoring run-time modified files using timeStampMaster (fileModificationSkew 5, maxFileModificationPolls 20)
allowSystemOperations : Allowing user-supplied system call operations

// * * * * * * * * * * * * * * * * * * * * * * * * * * * * * * * * * * * * * //
Create time

Create mesh for time = 0

Read mesh in = 0.15 s

Overall mesh bounding box  : (-10 -8.152 -5) (7.5 0 2.5)
Relative tolerance         : 1e-06
Absolute matching distance : 2.07112e-05

Reading refinement surfaces.
Read refinement surfaces in = 0.08 s

Reading refinement shells.
Read refinement shells in = 0.01 s

Setting refinement level of surface to be consistent with shells.
For geometry hull.stl detected 0 uncached triangles out of 18764
Checked shell refinement in = 0.08 s

Reading features.
Read edgeMesh hull.eMesh
    points      : 9384
    edges       : 28146
    boundingBox : (-0.0928877 -0.652247 -2.01458e-08) (2.53993 -0.318753 0.265)

Refinement level according to distance to "hull.eMesh" (9384 points, 28146 edges).
    level 2 for all cells within 0 metre.
Read features in = 0.12 s


Determining initial surface intersections
-----------------------------------------

Edge intersection testing:
    Number of edges             : 2783380
    Number of edges to retest   : 0
    Number of intersected edges : 0
Edge intersection testing:
    Number of edges             : 2783380
    Number of edges to retest   : 2783380
    Number of intersected edges : 15269
Calculated surface intersections in = 0.97 s

Initial mesh : cells:913743  faces:2783380  points:956390
Cells per refinement level:
    0	913743
Setting refinement level of surface to be consistent with curvature.
Checked curvature refinement in = 0.01 s


Adding patches for surface regions
----------------------------------

Patch Type                Region                        
----- ----                ------                        
hull:

6     wall                hull                          

Added patches in = 0.05 s

Edge intersection testing:
    Number of edges             : 2783380
    Number of edges to retest   : 0
    Number of intersected edges : 15269
Decomposition method hierarchical [12]

Refinement phase
----------------

Found point (-0.5 0 0) in cell 44442 on processor 2

Feature refinement iteration 0
------------------------------

Marked for refinement due to explicit features             : 14563 cells.
Determined cells to refine in = 2.44 s
Selected for feature refinement : 14563 cells (out of 913743)
Edge intersection testing:
    Number of edges             : 3134116
    Number of edges to retest   : 482378
    Number of intersected edges : 60866
Refined mesh in = 1.19 s
After refinement feature refinement iteration 0 : cells:1015684  faces:3134116  points:1103249
Cells per refinement level:
    0	899180
    1	116504
Balanced mesh in = 1.74 s
After balancing feature refinement iteration 0 : cells:1015684  faces:3134116  points:1103249
Cells per refinement level:
    0	899180
    1	116504

Feature refinement iteration 1
------------------------------

Marked for refinement due to explicit features             : 55532 cells.
Determined cells to refine in = 2.83 s
Selected for feature refinement : 68000 cells (out of 1015684)
Edge intersection testing:
    Number of edges             : 4746829
    Number of edges to retest   : 2107560
    Number of intersected edges : 244973
Refined mesh in = 1.87 s
After refinement feature refinement iteration 1 : cells:1491684  faces:4746829  points:1765317
Cells per refinement level:
    0	886712
    1	160716
    2	444256
Balanced mesh in = 2.67 s
After balancing feature refinement iteration 1 : cells:1491684  faces:4746829  points:1765317
Cells per refinement level:
    0	886712
    1	160716
    2	444256

Feature refinement iteration 2
------------------------------

Marked for refinement due to explicit features             : 0 cells.
Determined cells to refine in = 4.15 s
Selected for feature refinement : 0 cells (out of 1491684)
Stopping refining since too few cells selected.


Surface refinement iteration 0
------------------------------

Marked for refinement due to surface intersection          : 0 cells.
Determined cells to refine in = 0.03 s
Selected for refinement : 0 cells (out of 1491684)
Stopping refining since too few cells selected.


Removing mesh beyond surface intersections
------------------------------------------

Setting cellZones according to locationsInMesh:
Location : (-0.5 0 0)
    cellZone : none

For cellZone none found point (-0.5 0 0) in global region 0 out of 2 regions.
--> FOAM Warning : 
    From void Foam::meshRefinement::nearestFace(const labelUList&, const Foam::bitSet&, Foam::autoPtr<Foam::mapDistribute>&, Foam::labelList&, Foam::label) const
    in file meshRefinement/meshRefinement.C at line 515
    Did not visit some faces, e.g. face 0 at (-2.85417 -0.700562 0.0516458)
Keeping all cells containing inside points
Selected for keeping : 1323811 cells.
Edge intersection testing:
    Number of edges             : 4270374
    Number of edges to retest   : 195829
    Number of intersected edges : 244973

Shell refinement iteration 0
----------------------------

Marked for refinement due to distance to explicit features : 0 cells.
Marked for refinement due to refinement shells             : 0 cells.
Determined cells to refine in = 1.57 s
Selected for internal refinement : 66877 cells (out of 1323811)
Edge intersection testing:
    Number of edges             : 5684673
    Number of edges to retest   : 2931149
    Number of intersected edges : 245558
Refined mesh in = 1.93 s
After refinement shell refinement iteration 0 : cells:1791950  faces:5684673  points:2098003
Cells per refinement level:
    0	825329
    1	125033
    2	841588
Balanced mesh in = 2.95 s
After balancing shell refinement iteration 0 : cells:1791950  faces:5684673  points:2098042
Cells per refinement level:
    0	825329
    1	125033
    2	841588

Shell refinement iteration 1
----------------------------

Marked for refinement due to distance to explicit features : 0 cells.
Marked for refinement due to refinement shells             : 0 cells.
Determined cells to refine in = 0.38 s
Selected for internal refinement : 3590 cells (out of 1791950)
Edge intersection testing:
    Number of edges             : 5755281
    Number of edges to retest   : 307848
    Number of intersected edges : 245558
Refined mesh in = 1.57 s
After refinement shell refinement iteration 1 : cells:1817080  faces:5755281  points:2119175
Cells per refinement level:
    0	822654
    1	145518
    2	848908
Balanced mesh in = 2.91 s
After balancing shell refinement iteration 1 : cells:1817080  faces:5755281  points:2119190
Cells per refinement level:
    0	822654
    1	145518
    2	848908

Shell refinement iteration 2
----------------------------

Marked for refinement due to distance to explicit features : 0 cells.
Marked for refinement due to refinement shells             : 0 cells.
Determined cells to refine in = 0.36 s
Selected for internal refinement : 1 cells (out of 1817080)
Balanced mesh in = 2.53 s
After balancing shell refinement iteration 2 : cells:1817080  faces:5755281  points:2119190
Cells per refinement level:
    0	822654
    1	145518
    2	848908
Edge intersection testing:
    Number of edges             : 5755302
    Number of edges to retest   : 111
    Number of intersected edges : 245558
Refined mesh in = 1.55 s
After refinement shell refinement iteration 2 : cells:1817087  faces:5755302  points:2119197
Cells per refinement level:
    0	822653
    1	145526
    2	848908

Shell refinement iteration 3
----------------------------

Marked for refinement due to distance to explicit features : 0 cells.
Marked for refinement due to refinement shells             : 0 cells.
Determined cells to refine in = 0.34 s
Selected for internal refinement : 0 cells (out of 1817087)
Stopping refining since too few cells selected.


Dangling coarse cells refinement iteration 0
--------------------------------------------

Determined cells to refine in = 0.01 s
Selected for refinement : 227 cells (out of 1817087)
Balanced mesh in = 2.56 s
After balancing coarse cell refinement iteration 0 : cells:1817087  faces:5755302  points:2119197
Cells per refinement level:
    0	822653
    1	145526
    2	848908
Edge intersection testing:
    Number of edges             : 5758707
    Number of edges to retest   : 27435
    Number of intersected edges : 245558
Refined mesh in = 1.67 s
After refinement coarse cell refinement iteration 0 : cells:1818676  faces:5758707  points:2119651
Cells per refinement level:
    0	822653
    1	145299
    2	850724

Dangling coarse cells refinement iteration 1
--------------------------------------------

Determined cells to refine in = 0.19 s
Selected for refinement : 0 cells (out of 1818676)
Stopping refining since too few cells selected.


Dangling coarse cells refinement iteration 0
--------------------------------------------

Determined cells to refine in = 0.01 s
Selected for refinement : 0 cells (out of 1818676)
Stopping refining since too few cells selected.


Refinement transition refinement iteration 0
--------------------------------------------

Determined cells to refine in = 0.02 s
Selected for refinement : 0 cells (out of 1818676)
Stopping refining since too few cells selected.


Splitting mesh at surface intersections
---------------------------------------

Introducing baffles for 245558 faces that are intersected by the surface.

Setting cellZones according to locationsInMesh:
Location : (-0.5 0 0)
    cellZone : none

For cellZone none found point (-0.5 0 0) in global region 0 out of 2 regions.
Edge intersection testing:
    Number of edges             : 6004265
    Number of edges to retest   : 1691576
    Number of intersected edges : 490935
Created baffles in = 1.74 s


After introducing baffles : cells:1818676  faces:6004265  points:2120254
Cells per refinement level:
    0	822653
    1	145299
    2	850724

Introducing baffles to block off problem cells
----------------------------------------------

markFacesOnProblemCells : marked 360031 additional internal faces to be converted into baffles.
Analyzed problem cells in = 1.19 s


Introducing baffles to delete problem cells.

Edge intersection testing:
    Number of edges             : 6364296
    Number of edges to retest   : 1205475
    Number of intersected edges : 490994
Created baffles in = 1.31 s


After introducing baffles : cells:1818676  faces:6364296  points:2123778
Cells per refinement level:
    0	822653
    1	145299
    2	850724
Setting cellZones according to locationsInMesh:
Location : (-0.5 0 0)
    cellZone : none

For cellZone none found point (-0.5 0 0) in global region 0 out of 167017 regions.
Edge intersection testing:
    Number of edges             : 6364296
    Number of edges to retest   : 1974265
    Number of intersected edges : 490994

Remove unreachable sections of mesh
-----------------------------------

Keeping all cells containing points 1((-0.5 0 0))
Selected for keeping : 1505797 cells.
Edge intersection testing:
    Number of edges             : 4807595
    Number of edges to retest   : 0
    Number of intersected edges : 245852
Split mesh in = 3.32 s


After subsetting : cells:1505797  faces:4807595  points:1795919
Cells per refinement level:
    0	822653
    1	145232
    2	537912

Introducing zones for interfaces
--------------------------------

Setting cellZones according to locationsInMesh:
Location : (-0.5 0 0)
    cellZone : none

For cellZone none found point (-0.5 0 0) in global region 0 out of 1 regions.
Setting faceZones according to neighbouring cellZones:

Edge intersection testing:
    Number of edges             : 4807595
    Number of edges to retest   : 0
    Number of intersected edges : 245852

Handling cells with snap problems
---------------------------------

Introducing baffles for 245852 faces that are intersected by the surface.

Setting cellZones according to locationsInMesh:
Location : (-0.5 0 0)
    cellZone : none

For cellZone none found point (-0.5 0 0) in global region 0 out of 1 regions.
Edge intersection testing:
    Number of edges             : 4807595
    Number of edges to retest   : 853980
    Number of intersected edges : 245852
Created baffles in = 2.77 s


After introducing baffles : cells:1505797  faces:4807595  points:1795919
Cells per refinement level:
    0	822653
    1	145232
    2	537912

Introducing baffles to block off problem cells
----------------------------------------------

markFacesOnProblemCells : marked 0 additional internal faces to be converted into baffles.
Analyzed problem cells in = 0.96 s


Introducing baffles to delete problem cells.

Created baffles in = 0.08 s


After introducing baffles : cells:1505797  faces:4807595  points:1795919
Cells per refinement level:
    0	822653
    1	145232
    2	537912
Setting cellZones according to locationsInMesh:
Location : (-0.5 0 0)
    cellZone : none

For cellZone none found point (-0.5 0 0) in global region 0 out of 1 regions.
Edge intersection testing:
    Number of edges             : 4807595
    Number of edges to retest   : 853980
    Number of intersected edges : 245852

Remove unreachable sections of mesh
-----------------------------------

Split mesh in = 1.37 s


After subsetting : cells:1505797  faces:4807595  points:1795919
Cells per refinement level:
    0	822653
    1	145232
    2	537912

Merge free-standing baffles
---------------------------

freeStandingBaffles : detected 321 free-standing baffles out of 394

freeStandingBaffles : detected 2 planar (within 5 degrees) free-standing baffles out of 321

Detected free-standing baffles : 2
Edge intersection testing:
    Number of edges             : 4807593
    Number of edges to retest   : 2
    Number of intersected edges : 245850

Introducing baffles to block off problem cells
----------------------------------------------

markFacesOnProblemCells : marked 0 additional internal faces to be converted into baffles.
Analyzed problem cells in = 2.13 s


Introducing baffles to delete problem cells.

Created baffles in = 0.07 s


After introducing baffles : cells:1505797  faces:4807593  points:1795919
Cells per refinement level:
    0	822653
    1	145232
    2	537912

Remove unreachable sections of mesh
-----------------------------------

Merged free-standing baffles in = 0.23 s


dupNonManifoldPoints : Found : 394 non-manifold points (out of 1871949)
Edge intersection testing:
    Number of edges             : 4807593
    Number of edges to retest   : 0
    Number of intersected edges : 245850
Detected unsplittable baffles : 1
Edge intersection testing:
    Number of edges             : 4807592
    Number of edges to retest   : 1
    Number of intersected edges : 245849
Merged free-standing baffles in = 2.13 s.

Merge refined boundary faces
----------------------------

Merging 0 sets of faces.

No faces merged ...

Merging all points on surface that
- are used by only two boundary faces and
- make an angle with a cosine of more than 0.707107.

No straight edges simplified and no points removed ...

Doing final balancing
---------------------

Found 0 zoned faces to keep together.
Found 0 separated coupled faces to keep together.
Refined mesh : cells:1505797  faces:4807592  points:1796310
Cells per refinement level:
    0	822653
    1	145232
    2	537912
Writing mesh to time constant
Wrote mesh in = 3.02 s.
Mesh refined in = 57.73 s.

Morphing phase
--------------

Duplicating 0 points on faceZones of type boundary
Snapping to features in 40 iterations ...
Constructing mesh displacer ...
Using mesh parameters 
{
    maxNonOrtho     75;
    maxBoundarySkewness 10;
    maxInternalSkewness 4;
    maxConcave      80;
    minVol          1e-13;
    minTetQuality   1e-30;
    minArea         -1;
    minTwist        0.05;
    minDeterminant  0.001;
    minFaceWeight   0.05;
    minVolRatio     0.01;
    minTriangleTwist -1;
    nSmoothScale    4;
    errorReduction  0.75;
    relaxed
    {
        maxNonOrtho     75;
    }
}


Checking initial mesh ...
Checking faces in error :
    non-orthogonality > 75  degrees                        : 0
    faces with face pyramid volume < 1e-13                 : 0
    faces with face-decomposition tet quality < 1e-30      : 0
    faces with concavity > 80  degrees                     : 0
    faces with skewness > 4   (internal) or 10  (boundary) : 0
    faces with interpolation weights (0..1)  < 0.05        : 0
    faces with volume ratio of neighbour cells < 0.01      : 0
    faces with face twist < 0.05                           : 0
    faces on cells with determinant < 0.001                : 0
Detected 0 illegal faces (concave, zero area or negative cell pyramid volume)
Checked initial mesh in = 1.15 s


Smoothing patch points ...
Smoothing iteration 0
Found 788 non-manifold point(s).

Scaling iteration 0
Moving mesh using displacement scaling : min:1  max:1
Checking faces in error :
    non-orthogonality > 75  degrees                        : 0
    faces with face pyramid volume < 1e-13                 : 0
    faces with face-decomposition tet quality < 1e-30      : 0
    faces with concavity > 80  degrees                     : 0
    faces with skewness > 4   (internal) or 10  (boundary) : 0
    faces with interpolation weights (0..1)  < 0.05        : 0
    faces with volume ratio of neighbour cells < 0.01      : 0
    faces with face twist < 0.05                           : 0
    faces on cells with determinant < 0.001                : 0
Successfully moved mesh

Smoothing iteration 1
Found 0 non-manifold point(s).

Scaling iteration 0
Moving mesh using displacement scaling : min:1  max:1
Checking faces in error :
    non-orthogonality > 75  degrees                        : 0
    faces with face pyramid volume < 1e-13                 : 0
    faces with face-decomposition tet quality < 1e-30      : 0
    faces with concavity > 80  degrees                     : 0
    faces with skewness > 4   (internal) or 10  (boundary) : 0
    faces with interpolation weights (0..1)  < 0.05        : 0
    faces with volume ratio of neighbour cells < 0.01      : 0
    faces with face twist < 0.05                           : 0
    faces on cells with determinant < 0.001                : 0
Successfully moved mesh

Smoothing iteration 2
Found 0 non-manifold point(s).

Scaling iteration 0
Moving mesh using displacement scaling : min:1  max:1
Checking faces in error :
    non-orthogonality > 75  degrees                        : 0
    faces with face pyramid volume < 1e-13                 : 0
    faces with face-decomposition tet quality < 1e-30      : 0
    faces with concavity > 80  degrees                     : 0
    faces with skewness > 4   (internal) or 10  (boundary) : 0
    faces with interpolation weights (0..1)  < 0.05        : 0
    faces with volume ratio of neighbour cells < 0.01      : 0
    faces with face twist < 0.05                           : 0
    faces on cells with determinant < 0.001                : 0
Successfully moved mesh

Smoothing iteration 3
Found 0 non-manifold point(s).

Scaling iteration 0
Moving mesh using displacement scaling : min:1  max:1
Checking faces in error :
    non-orthogonality > 75  degrees                        : 0
    faces with face pyramid volume < 1e-13                 : 0
    faces with face-decomposition tet quality < 1e-30      : 0
    faces with concavity > 80  degrees                     : 0
    faces with skewness > 4   (internal) or 10  (boundary) : 0
    faces with interpolation weights (0..1)  < 0.05        : 0
    faces with volume ratio of neighbour cells < 0.01      : 0
    faces with face twist < 0.05                           : 0
    faces on cells with determinant < 0.001                : 0
Successfully moved mesh

Smoothing iteration 4
Found 0 non-manifold point(s).

Scaling iteration 0
Moving mesh using displacement scaling : min:1  max:1
Checking faces in error :
    non-orthogonality > 75  degrees                        : 0
    faces with face pyramid volume < 1e-13                 : 0
    faces with face-decomposition tet quality < 1e-30      : 0
    faces with concavity > 80  degrees                     : 0
    faces with skewness > 4   (internal) or 10  (boundary) : 0
    faces with interpolation weights (0..1)  < 0.05        : 0
    faces with volume ratio of neighbour cells < 0.01      : 0
    faces with face twist < 0.05                           : 0
    faces on cells with determinant < 0.001                : 0
Successfully moved mesh

Smoothing iteration 5
Found 0 non-manifold point(s).

Scaling iteration 0
Moving mesh using displacement scaling : min:1  max:1
Checking faces in error :
    non-orthogonality > 75  degrees                        : 0
    faces with face pyramid volume < 1e-13                 : 0
    faces with face-decomposition tet quality < 1e-30      : 0
    faces with concavity > 80  degrees                     : 0
    faces with skewness > 4   (internal) or 10  (boundary) : 0
    faces with interpolation weights (0..1)  < 0.05        : 0
    faces with volume ratio of neighbour cells < 0.01      : 0
    faces with face twist < 0.05                           : 0
    faces on cells with determinant < 0.001                : 0
Successfully moved mesh

Smoothing iteration 6
Found 0 non-manifold point(s).

Scaling iteration 0
Moving mesh using displacement scaling : min:1  max:1
Checking faces in error :
    non-orthogonality > 75  degrees                        : 0
    faces with face pyramid volume < 1e-13                 : 0
    faces with face-decomposition tet quality < 1e-30      : 0
    faces with concavity > 80  degrees                     : 0
    faces with skewness > 4   (internal) or 10  (boundary) : 0
    faces with interpolation weights (0..1)  < 0.05        : 0
    faces with volume ratio of neighbour cells < 0.01      : 0
    faces with face twist < 0.05                           : 0
    faces on cells with determinant < 0.001                : 0
Successfully moved mesh

Smoothing iteration 7
Found 0 non-manifold point(s).

Scaling iteration 0
Moving mesh using displacement scaling : min:1  max:1
Checking faces in error :
    non-orthogonality > 75  degrees                        : 0
    faces with face pyramid volume < 1e-13                 : 0
    faces with face-decomposition tet quality < 1e-30      : 0
    faces with concavity > 80  degrees                     : 0
    faces with skewness > 4   (internal) or 10  (boundary) : 0
    faces with interpolation weights (0..1)  < 0.05        : 0
    faces with volume ratio of neighbour cells < 0.01      : 0
    faces with face twist < 0.05                           : 0
    faces on cells with determinant < 0.001                : 0
Successfully moved mesh

Smoothing iteration 8
Found 0 non-manifold point(s).

Scaling iteration 0
Moving mesh using displacement scaling : min:1  max:1
Checking faces in error :
    non-orthogonality > 75  degrees                        : 0
    faces with face pyramid volume < 1e-13                 : 0
    faces with face-decomposition tet quality < 1e-30      : 0
    faces with concavity > 80  degrees                     : 0
    faces with skewness > 4   (internal) or 10  (boundary) : 0
    faces with interpolation weights (0..1)  < 0.05        : 0
    faces with volume ratio of neighbour cells < 0.01      : 0
    faces with face twist < 0.05                           : 0
    faces on cells with determinant < 0.001                : 0
Successfully moved mesh

Smoothing iteration 9
Found 0 non-manifold point(s).

Scaling iteration 0
Moving mesh using displacement scaling : min:1  max:1
Checking faces in error :
    non-orthogonality > 75  degrees                        : 0
    faces with face pyramid volume < 1e-13                 : 0
    faces with face-decomposition tet quality < 1e-30      : 0
    faces with concavity > 80  degrees                     : 0
    faces with skewness > 4   (internal) or 10  (boundary) : 0
    faces with interpolation weights (0..1)  < 0.05        : 0
    faces with volume ratio of neighbour cells < 0.01      : 0
    faces with face twist < 0.05                           : 0
    faces on cells with determinant < 0.001                : 0
Successfully moved mesh

Patch points smoothed in = 11.69 s



Morph iteration 0
-----------------
Calculating patchDisplacement as distance to nearest surface point ...
    non-zone points : attract to nearest of all non-zone surfaces
    zone points     : attract to zone surface only

Wanted displacement : average:0.00166309 min:1.5201e-08 max:0.00316024
Calculated surface displacement in = 0.06 s


Detecting near surfaces ...
Overriding nearest with intersection of close gaps at 21 out of 250413 points.
Overriding displacement on features :
   implicit features    : false
   explicit features    : true
   multi-patch features : false

Detected 52 baffle edges out of 496346 edges.
Baffle points     : 73 of which attracted to :
    feature point : 0
    feature edge  : 73
    rest          : 0

Initially selected 13141 mesh points out of 250413 for reverse attraction.
Selected 39616 mesh points out of 250413 for reverse attraction.
Stringing feature edges : changed 1071 points
Stringing feature edges : changed 31 points
Stringing feature edges : changed 5 points
Stringing feature edges : changed 0 points
Attraction:
    linear   : max:(2.65953e-05 0.00315856 9.95828e-05) avg:(-5.40204e-06 1.01463e-05 -1.99223e-05)
    feature  : max:(-0.00294246 -0.000456662 -0.0118216) avg:(3.05172e-06 -8.51467e-08 2.20007e-05)
Feature analysis : total master points :245944 of which attracted to :
    feature point   : 224
    feature edge    : 12553
    nearest surface : 0
    rest            : 233167

--> FOAM Warning : Displacement (2.80539e-09 1.68744e-07 -6.29863e-07) at mesh point 105228 coord (0.841747 -0.573362 0.000548605) points through the surrounding patch faces
Smoothing displacement ...
Iteration 0
Iteration 10
Iteration 20
Iteration 30
Iteration 40
Iteration 50
Iteration 60
Iteration 70
Iteration 80
Iteration 90
Iteration 100
Iteration 110
Iteration 120
Iteration 130
Iteration 140
Iteration 150
Iteration 160
Iteration 170
Iteration 180
Iteration 190
Iteration 200
Iteration 210
Iteration 220
Iteration 230
Iteration 240
Iteration 250
Iteration 260
Iteration 270
Iteration 280
Iteration 290
Iteration 300
Iteration 310
Iteration 320
Iteration 330
Iteration 340
Iteration 350
Iteration 360
Iteration 370
Iteration 380
Iteration 390
Displacement smoothed in = 13.38 s


Moving mesh ...

Iteration 0
Moving mesh using displacement scaling : min:1  max:1
Checking faces in error :
    non-orthogonality > 75  degrees                        : 0
    faces with face pyramid volume < 1e-13                 : 0
    faces with face-decomposition tet quality < 1e-30      : 0
    faces with concavity > 80  degrees                     : 0
    faces with skewness > 4   (internal) or 10  (boundary) : 0
    faces with interpolation weights (0..1)  < 0.05        : 0
    faces with volume ratio of neighbour cells < 0.01      : 0
    faces with face twist < 0.05                           : 0
    faces on cells with determinant < 0.001                : 0
Successfully moved mesh
Moved mesh in = 1.08 s



Morph iteration 1
-----------------
Calculating patchDisplacement as distance to nearest surface point ...
    non-zone points : attract to nearest of all non-zone surfaces
    zone points     : attract to zone surface only

Wanted displacement : average:0.00162263 min:1.3971e-07 max:0.00308796
Calculated surface displacement in = 0.06 s


Detecting near surfaces ...
Overriding nearest with intersection of close gaps at 21 out of 250413 points.
Overriding displacement on features :
   implicit features    : false
   explicit features    : true
   multi-patch features : false

Detected 58 baffle edges out of 496346 edges.
Baffle points     : 82 of which attracted to :
    feature point : 0
    feature edge  : 82
    rest          : 0

Initially selected 13148 mesh points out of 250413 for reverse attraction.
Selected 39620 mesh points out of 250413 for reverse attraction.
Stringing feature edges : changed 1061 points
Stringing feature edges : changed 27 points
Stringing feature edges : changed 3 points
Stringing feature edges : changed 0 points
Attraction:
    linear   : max:(4.03625e-05 0.00308666 7.98952e-05) avg:(-5.2431e-06 9.89944e-06 -1.94032e-05)
    feature  : max:(-0.0029505 -0.000443098 -0.0118151) avg:(2.9331e-06 -5.32953e-08 2.14167e-05)
Feature analysis : total master points :245944 of which attracted to :
    feature point   : 222
    feature edge    : 12546
    nearest surface : 0
    rest            : 233176

--> FOAM Warning : Displacement (2.8241e-08 8.95062e-07 -1.33398e-06) at mesh point 105228 coord (0.841747 -0.573362 0.000547975) points through the surrounding patch faces
Smoothing displacement ...
Iteration 0
Iteration 10
Iteration 20
Iteration 30
Iteration 40
Iteration 50
Iteration 60
Iteration 70
Iteration 80
Iteration 90
Iteration 100
Iteration 110
Iteration 120
Iteration 130
Iteration 140
Iteration 150
Iteration 160
Iteration 170
Iteration 180
Iteration 190
Iteration 200
Iteration 210
Iteration 220
Iteration 230
Iteration 240
Iteration 250
Iteration 260
Iteration 270
Iteration 280
Iteration 290
Iteration 300
Iteration 310
Iteration 320
Iteration 330
Iteration 340
Iteration 350
Iteration 360
Iteration 370
Iteration 380
Iteration 390
Displacement smoothed in = 13.33 s


Moving mesh ...

Iteration 0
Moving mesh using displacement scaling : min:1  max:1
Checking faces in error :
    non-orthogonality > 75  degrees                        : 0
    faces with face pyramid volume < 1e-13                 : 0
    faces with face-decomposition tet quality < 1e-30      : 0
    faces with concavity > 80  degrees                     : 0
    faces with skewness > 4   (internal) or 10  (boundary) : 0
    faces with interpolation weights (0..1)  < 0.05        : 0
    faces with volume ratio of neighbour cells < 0.01      : 0
    faces with face twist < 0.05                           : 0
    faces on cells with determinant < 0.001                : 0
Successfully moved mesh
Moved mesh in = 1.06 s



Morph iteration 2
-----------------
Calculating patchDisplacement as distance to nearest surface point ...
    non-zone points : attract to nearest of all non-zone surfaces
    zone points     : attract to zone surface only

Wanted displacement : average:0.00154367 min:1.11598e-07 max:0.00294733
Calculated surface displacement in = 0.07 s


Detecting near surfaces ...
Overriding nearest with intersection of close gaps at 19 out of 250413 points.
Overriding displacement on features :
   implicit features    : false
   explicit features    : true
   multi-patch features : false

Detected 56 baffle edges out of 496346 edges.
Baffle points     : 79 of which attracted to :
    feature point : 0
    feature edge  : 79
    rest          : 0

Initially selected 13143 mesh points out of 250413 for reverse attraction.
Selected 39607 mesh points out of 250413 for reverse attraction.
Stringing feature edges : changed 1053 points
Stringing feature edges : changed 23 points
Stringing feature edges : changed 3 points
Stringing feature edges : changed 0 points
Attraction:
    linear   : max:(3.85243e-05 0.00294609 7.62566e-05) avg:(-4.93446e-06 9.41146e-06 -1.83812e-05)
    feature  : max:(-0.00296383 -0.000417036 -0.0117949) avg:(2.76206e-06 -1.50474e-09 2.02982e-05)
Feature analysis : total master points :245944 of which attracted to :
    feature point   : 220
    feature edge    : 12540
    nearest surface : 0
    rest            : 233184

--> FOAM Warning : Displacement (7.66702e-08 2.18093e-06 -2.0701e-06) at mesh point 105228 coord (0.841747 -0.573361 0.000546641) points through the surrounding patch faces
Smoothing displacement ...
Iteration 0
Iteration 10
Iteration 20
Iteration 30
Iteration 40
Iteration 50
Iteration 60
Iteration 70
Iteration 80
Iteration 90
Iteration 100
Iteration 110
Iteration 120
Iteration 130
Iteration 140
Iteration 150
Iteration 160
Iteration 170
Iteration 180
Iteration 190
Iteration 200
Iteration 210
Iteration 220
Iteration 230
Iteration 240
Iteration 250
Iteration 260
Iteration 270
Iteration 280
Iteration 290
Iteration 300
Iteration 310
Iteration 320
Iteration 330
Iteration 340
Iteration 350
Iteration 360
Iteration 370
Iteration 380
Iteration 390
Displacement smoothed in = 13.3 s


Moving mesh ...

Iteration 0
Moving mesh using displacement scaling : min:1  max:1
Checking faces in error :
    non-orthogonality > 75  degrees                        : 0
    faces with face pyramid volume < 1e-13                 : 0
    faces with face-decomposition tet quality < 1e-30      : 0
    faces with concavity > 80  degrees                     : 0
    faces with skewness > 4   (internal) or 10  (boundary) : 0
    faces with interpolation weights (0..1)  < 0.05        : 0
    faces with volume ratio of neighbour cells < 0.01      : 0
    faces with face twist < 0.05                           : 0
    faces on cells with determinant < 0.001                : 0
Successfully moved mesh
Moved mesh in = 1.05 s



Morph iteration 3
-----------------
Calculating patchDisplacement as distance to nearest surface point ...
    non-zone points : attract to nearest of all non-zone surfaces
    zone points     : attract to zone surface only

Wanted displacement : average:0.00143103 min:3.04278e-08 max:0.00274551
Calculated surface displacement in = 0.07 s


Detecting near surfaces ...
Overriding nearest with intersection of close gaps at 21 out of 250413 points.
Overriding displacement on features :
   implicit features    : false
   explicit features    : true
   multi-patch features : false

Detected 60 baffle edges out of 496346 edges.
Baffle points     : 85 of which attracted to :
    feature point : 0
    feature edge  : 85
    rest          : 0

Initially selected 13144 mesh points out of 250413 for reverse attraction.
Selected 39593 mesh points out of 250413 for reverse attraction.
Stringing feature edges : changed 1042 points
Stringing feature edges : changed 16 points
Stringing feature edges : changed 4 points
Stringing feature edges : changed 0 points
Attraction:
    linear   : max:(3.58864e-05 0.00274435 7.10349e-05) avg:(-4.48603e-06 8.72179e-06 -1.69115e-05)
    feature  : max:(-0.00261386 0.000581296 -0.0116594) avg:(2.5416e-06 3.84579e-10 1.86916e-05)
Feature analysis : total master points :245944 of which attracted to :
    feature point   : 222
    feature edge    : 12529
    nearest surface : 0
    rest            : 233193

--> FOAM Warning : Displacement (1.47886e-07 4.01534e-06 -2.80078e-06) at mesh point 105228 coord (0.841748 -0.573359 0.000544571) points through the surrounding patch faces
Smoothing displacement ...
Iteration 0
Iteration 10
Iteration 20
Iteration 30
Iteration 40
Iteration 50
Iteration 60
Iteration 70
Iteration 80
Iteration 90
Iteration 100
Iteration 110
Iteration 120
Iteration 130
Iteration 140
Iteration 150
Iteration 160
Iteration 170
Iteration 180
Iteration 190
Iteration 200
Iteration 210
Iteration 220
Iteration 230
Iteration 240
Iteration 250
Iteration 260
Iteration 270
Iteration 280
Iteration 290
Iteration 300
Iteration 310
Iteration 320
Iteration 330
Iteration 340
Iteration 350
Iteration 360
Iteration 370
Iteration 380
Iteration 390
Displacement smoothed in = 13.3 s


Moving mesh ...

Iteration 0
Moving mesh using displacement scaling : min:1  max:1
Checking faces in error :
    non-orthogonality > 75  degrees                        : 0
    faces with face pyramid volume < 1e-13                 : 0
    faces with face-decomposition tet quality < 1e-30      : 0
    faces with concavity > 80  degrees                     : 0
    faces with skewness > 4   (internal) or 10  (boundary) : 0
    faces with interpolation weights (0..1)  < 0.05        : 0
    faces with volume ratio of neighbour cells < 0.01      : 0
    faces with face twist < 0.05                           : 0
    faces on cells with determinant < 0.001                : 0
Successfully moved mesh
Moved mesh in = 1.07 s



Morph iteration 4
-----------------
Calculating patchDisplacement as distance to nearest surface point ...
    non-zone points : attract to nearest of all non-zone surfaces
    zone points     : attract to zone surface only

Wanted displacement : average:0.00129192 min:1.11375e-07 max:0.00249433
Calculated surface displacement in = 0.06 s


Detecting near surfaces ...
Overriding nearest with intersection of close gaps at 18 out of 250413 points.
Overriding displacement on features :
   implicit features    : false
   explicit features    : true
   multi-patch features : false

Detected 63 baffle edges out of 496346 edges.
Baffle points     : 89 of which attracted to :
    feature point : 0
    feature edge  : 89
    rest          : 0

Initially selected 13143 mesh points out of 250413 for reverse attraction.
Selected 39575 mesh points out of 250413 for reverse attraction.
Stringing feature edges : changed 1031 points
Stringing feature edges : changed 10 points
Stringing feature edges : changed 1 points
Stringing feature edges : changed 0 points
Attraction:
    linear   : max:(3.26033e-05 0.00249329 6.45363e-05) avg:(-3.94662e-06 7.87058e-06 -1.50817e-05)
    feature  : max:(-0.00262499 0.000529105 -0.0115939) avg:(2.20641e-06 -2.93613e-08 1.66823e-05)
Feature analysis : total master points :245944 of which attracted to :
    feature point   : 224
    feature edge    : 12513
    nearest surface : 0
    rest            : 233207

--> FOAM Warning : Displacement (2.40784e-07 6.36694e-06 -3.49646e-06) at mesh point 105228 coord (0.841748 -0.573355 0.00054177) points through the surrounding patch faces
Smoothing displacement ...
Iteration 0
Iteration 10
Iteration 20
Iteration 30
Iteration 40
Iteration 50
Iteration 60
Iteration 70
Iteration 80
Iteration 90
Iteration 100
Iteration 110
Iteration 120
Iteration 130
Iteration 140
Iteration 150
Iteration 160
Iteration 170
Iteration 180
Iteration 190
Iteration 200
Iteration 210
Iteration 220
Iteration 230
Iteration 240
Iteration 250
Iteration 260
Iteration 270
Iteration 280
Iteration 290
Iteration 300
Iteration 310
Iteration 320
Iteration 330
Iteration 340
Iteration 350
Iteration 360
Iteration 370
Iteration 380
Iteration 390
Displacement smoothed in = 13.23 s


Moving mesh ...

Iteration 0
Moving mesh using displacement scaling : min:1  max:1
Checking faces in error :
    non-orthogonality > 75  degrees                        : 0
    faces with face pyramid volume < 1e-13                 : 0
    faces with face-decomposition tet quality < 1e-30      : 0
    faces with concavity > 80  degrees                     : 0
    faces with skewness > 4   (internal) or 10  (boundary) : 0
    faces with interpolation weights (0..1)  < 0.05        : 0
    faces with volume ratio of neighbour cells < 0.01      : 0
    faces with face twist < 0.05                           : 0
    faces on cells with determinant < 0.001                : 0
Successfully moved mesh
Moved mesh in = 1.03 s



Morph iteration 5
-----------------
Calculating patchDisplacement as distance to nearest surface point ...
    non-zone points : attract to nearest of all non-zone surfaces
    zone points     : attract to zone surface only

Wanted displacement : average:0.00113513 min:4.36145e-08 max:0.00220859
Calculated surface displacement in = 0.06 s


Detecting near surfaces ...
Overriding nearest with intersection of close gaps at 20 out of 250413 points.
Overriding displacement on features :
   implicit features    : false
   explicit features    : true
   multi-patch features : false

Detected 63 baffle edges out of 496346 edges.
Baffle points     : 89 of which attracted to :
    feature point : 0
    feature edge  : 89
    rest          : 0

Initially selected 13134 mesh points out of 250413 for reverse attraction.
Selected 39551 mesh points out of 250413 for reverse attraction.
Stringing feature edges : changed 1018 points
Stringing feature edges : changed 8 points
Stringing feature edges : changed 1 points
Stringing feature edges : changed 0 points
Attraction:
    linear   : max:(2.88683e-05 0.00220766 5.71432e-05) avg:(-3.33622e-06 6.90559e-06 -1.29974e-05)
    feature  : max:(-0.00263104 0.000470901 -0.0114954) avg:(1.91932e-06 4.58075e-08 1.44149e-05)
Feature analysis : total master points :245944 of which attracted to :
    feature point   : 224
    feature edge    : 12498
    nearest surface : 0
    rest            : 233222

--> FOAM Warning : Displacement (3.53093e-07 9.17773e-06 -4.13696e-06) at mesh point 105228 coord (0.841748 -0.573348 0.000538274) points through the surrounding patch faces
Smoothing displacement ...
Iteration 0
Iteration 10
Iteration 20
Iteration 30
Iteration 40
Iteration 50
Iteration 60
Iteration 70
Iteration 80
Iteration 90
Iteration 100
Iteration 110
Iteration 120
Iteration 130
Iteration 140
Iteration 150
Iteration 160
Iteration 170
Iteration 180
Iteration 190
Iteration 200
Iteration 210
Iteration 220
Iteration 230
Iteration 240
Iteration 250
Iteration 260
Iteration 270
Iteration 280
Iteration 290
Iteration 300
Iteration 310
Iteration 320
Iteration 330
Iteration 340
Iteration 350
Iteration 360
Iteration 370
Iteration 380
Iteration 390
Displacement smoothed in = 13.35 s


Moving mesh ...

Iteration 0
Moving mesh using displacement scaling : min:1  max:1
Checking faces in error :
    non-orthogonality > 75  degrees                        : 0
    faces with face pyramid volume < 1e-13                 : 0
    faces with face-decomposition tet quality < 1e-30      : 0
    faces with concavity > 80  degrees                     : 0
    faces with skewness > 4   (internal) or 10  (boundary) : 0
    faces with interpolation weights (0..1)  < 0.05        : 0
    faces with volume ratio of neighbour cells < 0.01      : 0
    faces with face twist < 0.05                           : 0
    faces on cells with determinant < 0.001                : 0
Successfully moved mesh
Moved mesh in = 1.08 s



Morph iteration 6
-----------------
Calculating patchDisplacement as distance to nearest surface point ...
    non-zone points : attract to nearest of all non-zone surfaces
    zone points     : attract to zone surface only

Wanted displacement : average:0.0009701 min:6.19572e-09 max:0.00190902
Calculated surface displacement in = 0.05 s


Detecting near surfaces ...
Overriding nearest with intersection of close gaps at 27 out of 250413 points.
Overriding displacement on features :
   implicit features    : false
   explicit features    : true
   multi-patch features : false

Detected 71 baffle edges out of 496346 edges.
Baffle points     : 101 of which attracted to :
    feature point : 0
    feature edge  : 101
    rest          : 0

Initially selected 13117 mesh points out of 250413 for reverse attraction.
Selected 39494 mesh points out of 250413 for reverse attraction.
Stringing feature edges : changed 1011 points
Stringing feature edges : changed 5 points
Stringing feature edges : changed 0 points
Attraction:
    linear   : max:(2.49527e-05 0.00190822 4.93925e-05) avg:(-2.70326e-06 5.89178e-06 -1.0781e-05)
    feature  : max:(-0.00137155 -0.0018738 -0.0107264) avg:(1.6093e-06 7.18031e-08 1.21689e-05)
Feature analysis : total master points :245944 of which attracted to :
    feature point   : 228
    feature edge    : 12483
    nearest surface : 0
    rest            : 233233

--> FOAM Warning : Displacement (4.81192e-07 1.23586e-05 -4.71107e-06) at mesh point 105228 coord (0.841748 -0.573339 0.000534137) points through the surrounding patch faces
Smoothing displacement ...
Iteration 0
Iteration 10
Iteration 20
Iteration 30
Iteration 40
Iteration 50
Iteration 60
Iteration 70
Iteration 80
Iteration 90
Iteration 100
Iteration 110
Iteration 120
Iteration 130
Iteration 140
Iteration 150
Iteration 160
Iteration 170
Iteration 180
Iteration 190
Iteration 200
Iteration 210
Iteration 220
Iteration 230
Iteration 240
Iteration 250
Iteration 260
Iteration 270
Iteration 280
Iteration 290
Iteration 300
Iteration 310
Iteration 320
Iteration 330
Iteration 340
Iteration 350
Iteration 360
Iteration 370
Iteration 380
Iteration 390
Displacement smoothed in = 13.33 s


Moving mesh ...

Iteration 0
Moving mesh using displacement scaling : min:1  max:1
Checking faces in error :
    non-orthogonality > 75  degrees                        : 0
    faces with face pyramid volume < 1e-13                 : 0
    faces with face-decomposition tet quality < 1e-30      : 2
    faces with concavity > 80  degrees                     : 0
    faces with skewness > 4   (internal) or 10  (boundary) : 0
    faces with interpolation weights (0..1)  < 0.05        : 0
    faces with volume ratio of neighbour cells < 0.01      : 0
    faces with face twist < 0.05                           : 0
    faces on cells with determinant < 0.001                : 0

Iteration 1
Moving mesh using displacement scaling : min:0.75  max:1
Checking faces in error :
    non-orthogonality > 75  degrees                        : 0
    faces with face pyramid volume < 1e-13                 : 0
    faces with face-decomposition tet quality < 1e-30      : 0
    faces with concavity > 80  degrees                     : 0
    faces with skewness > 4   (internal) or 10  (boundary) : 0
    faces with interpolation weights (0..1)  < 0.05        : 0
    faces with volume ratio of neighbour cells < 0.01      : 0
    faces with face twist < 0.05                           : 0
    faces on cells with determinant < 0.001                : 0
Successfully moved mesh
Moved mesh in = 1.52 s



Morph iteration 7
-----------------
Calculating patchDisplacement as distance to nearest surface point ...
    non-zone points : attract to nearest of all non-zone surfaces
    zone points     : attract to zone surface only

Wanted displacement : average:0.000806005 min:1.41221e-08 max:0.00166732
Calculated surface displacement in = 0.05 s


Detecting near surfaces ...
Overriding nearest with intersection of close gaps at 27 out of 250413 points.
Overriding displacement on features :
   implicit features    : false
   explicit features    : true
   multi-patch features : false

Detected 78 baffle edges out of 496346 edges.
Baffle points     : 111 of which attracted to :
    feature point : 0
    feature edge  : 111
    rest          : 0

Initially selected 13089 mesh points out of 250413 for reverse attraction.
Selected 39426 mesh points out of 250413 for reverse attraction.
Stringing feature edges : changed 1008 points
Stringing feature edges : changed 5 points
Stringing feature edges : changed 0 points
Attraction:
    linear   : max:(-3.10775e-05 0.00166689 2.19011e-05) avg:(-2.09806e-06 4.88457e-06 -8.5483e-06)
    feature  : max:(0.00412334 -0.000843075 -0.0108019) avg:(1.22989e-06 9.31369e-08 9.84852e-06)
Feature analysis : total master points :245944 of which attracted to :
    feature point   : 227
    feature edge    : 12476
    nearest surface : 0
    rest            : 233241

--> FOAM Warning : Displacement (9.86655e-07 2.74874e-05 -1.48464e-06) at mesh point 105152 coord (0.832668 -0.573232 0.000648554) points through the surrounding patch faces
Smoothing displacement ...
Iteration 0
Iteration 10
Iteration 20
Iteration 30
Iteration 40
Iteration 50
Iteration 60
Iteration 70
Iteration 80
Iteration 90
Iteration 100
Iteration 110
Iteration 120
Iteration 130
Iteration 140
Iteration 150
Iteration 160
Iteration 170
Iteration 180
Iteration 190
Iteration 200
Iteration 210
Iteration 220
Iteration 230
Iteration 240
Iteration 250
Iteration 260
Iteration 270
Iteration 280
Iteration 290
Iteration 300
Iteration 310
Iteration 320
Iteration 330
Iteration 340
Iteration 350
Iteration 360
Iteration 370
Iteration 380
Iteration 390
Displacement smoothed in = 13.22 s


Moving mesh ...

Iteration 0
Moving mesh using displacement scaling : min:1  max:1
Checking faces in error :
    non-orthogonality > 75  degrees                        : 0
    faces with face pyramid volume < 1e-13                 : 0
    faces with face-decomposition tet quality < 1e-30      : 4
    faces with concavity > 80  degrees                     : 0
    faces with skewness > 4   (internal) or 10  (boundary) : 0
    faces with interpolation weights (0..1)  < 0.05        : 0
    faces with volume ratio of neighbour cells < 0.01      : 0
    faces with face twist < 0.05                           : 0
    faces on cells with determinant < 0.001                : 0

Iteration 1
Moving mesh using displacement scaling : min:0.75  max:1
Checking faces in error :
    non-orthogonality > 75  degrees                        : 0
    faces with face pyramid volume < 1e-13                 : 0
    faces with face-decomposition tet quality < 1e-30      : 3
    faces with concavity > 80  degrees                     : 0
    faces with skewness > 4   (internal) or 10  (boundary) : 0
    faces with interpolation weights (0..1)  < 0.05        : 0
    faces with volume ratio of neighbour cells < 0.01      : 0
    faces with face twist < 0.05                           : 0
    faces on cells with determinant < 0.001                : 0

Iteration 2
Moving mesh using displacement scaling : min:0.5625  max:1
Checking faces in error :
    non-orthogonality > 75  degrees                        : 0
    faces with face pyramid volume < 1e-13                 : 0
    faces with face-decomposition tet quality < 1e-30      : 2
    faces with concavity > 80  degrees                     : 0
    faces with skewness > 4   (internal) or 10  (boundary) : 0
    faces with interpolation weights (0..1)  < 0.05        : 0
    faces with volume ratio of neighbour cells < 0.01      : 0
    faces with face twist < 0.05                           : 0
    faces on cells with determinant < 0.001                : 0

Iteration 3
Moving mesh using displacement scaling : min:0.421875  max:1
Checking faces in error :
    non-orthogonality > 75  degrees                        : 0
    faces with face pyramid volume < 1e-13                 : 0
    faces with face-decomposition tet quality < 1e-30      : 2
    faces with concavity > 80  degrees                     : 0
    faces with skewness > 4   (internal) or 10  (boundary) : 0
    faces with interpolation weights (0..1)  < 0.05        : 0
    faces with volume ratio of neighbour cells < 0.01      : 0
    faces with face twist < 0.05                           : 0
    faces on cells with determinant < 0.001                : 0

Iteration 4
Moving mesh using displacement scaling : min:0.316406  max:1
Checking faces in error :
    non-orthogonality > 75  degrees                        : 0
    faces with face pyramid volume < 1e-13                 : 0
    faces with face-decomposition tet quality < 1e-30      : 2
    faces with concavity > 80  degrees                     : 0
    faces with skewness > 4   (internal) or 10  (boundary) : 0
    faces with interpolation weights (0..1)  < 0.05        : 0
    faces with volume ratio of neighbour cells < 0.01      : 0
    faces with face twist < 0.05                           : 0
    faces on cells with determinant < 0.001                : 0

Iteration 5
Displacement scaling for error reduction set to 0.
Moving mesh using displacement scaling : min:0.237305  max:1
Checking faces in error :
    non-orthogonality > 75  degrees                        : 0
    faces with face pyramid volume < 1e-13                 : 0
    faces with face-decomposition tet quality < 1e-30      : 2
    faces with concavity > 80  degrees                     : 0
    faces with skewness > 4   (internal) or 10  (boundary) : 0
    faces with interpolation weights (0..1)  < 0.05        : 0
    faces with volume ratio of neighbour cells < 0.01      : 0
    faces with face twist < 0.05                           : 0
    faces on cells with determinant < 0.001                : 0

Iteration 6
Moving mesh using displacement scaling : min:0  max:1
Checking faces in error :
    non-orthogonality > 75  degrees                        : 0
    faces with face pyramid volume < 1e-13                 : 0
    faces with face-decomposition tet quality < 1e-30      : 0
    faces with concavity > 80  degrees                     : 0
    faces with skewness > 4   (internal) or 10  (boundary) : 0
    faces with interpolation weights (0..1)  < 0.05        : 0
    faces with volume ratio of neighbour cells < 0.01      : 0
    faces with face twist < 0.05                           : 0
    faces on cells with determinant < 0.001                : 0
Successfully moved mesh
Moved mesh in = 3.53 s



Morph iteration 8
-----------------
Calculating patchDisplacement as distance to nearest surface point ...
    non-zone points : attract to nearest of all non-zone surfaces
    zone points     : attract to zone surface only

Wanted displacement : average:0.000650855 min:1.80684e-08 max:0.00161896
Calculated surface displacement in = 0.07 s


Detecting near surfaces ...
Overriding nearest with intersection of close gaps at 29 out of 250413 points.
Overriding displacement on features :
   implicit features    : false
   explicit features    : true
   multi-patch features : false

Detected 102 baffle edges out of 496346 edges.
Baffle points     : 138 of which attracted to :
    feature point : 0
    feature edge  : 138
    rest          : 0

Initially selected 13073 mesh points out of 250413 for reverse attraction.
Selected 39386 mesh points out of 250413 for reverse attraction.
Stringing feature edges : changed 998 points
Stringing feature edges : changed 4 points
Stringing feature edges : changed 0 points
Attraction:
    linear   : max:(-0.000511365 -0.00150512 -0.000306842) avg:(-1.53226e-06 3.9258e-06 -6.41349e-06)
    feature  : max:(-0.000790267 -0.0013985 -0.0108435) avg:(7.88786e-07 4.25337e-08 7.70575e-06)
Feature analysis : total master points :245944 of which attracted to :
    feature point   : 223
    feature edge    : 12476
    nearest surface : 0
    rest            : 233245

--> FOAM Warning : Displacement (1.41199e-06 3.91424e-05 -1.31768e-06) at mesh point 103474 coord (0.828116 -0.573147 0.000697782) points through the surrounding patch faces
Smoothing displacement ...
Iteration 0
Iteration 10
Iteration 20
Iteration 30
Iteration 40
Iteration 50
Iteration 60
Iteration 70
Iteration 80
Iteration 90
Iteration 100
Iteration 110
Iteration 120
Iteration 130
Iteration 140
Iteration 150
Iteration 160
Iteration 170
Iteration 180
Iteration 190
Iteration 200
Iteration 210
Iteration 220
Iteration 230
Iteration 240
Iteration 250
Iteration 260
Iteration 270
Iteration 280
Iteration 290
Iteration 300
Iteration 310
Iteration 320
Iteration 330
Iteration 340
Iteration 350
Iteration 360
Iteration 370
Iteration 380
Iteration 390
Displacement smoothed in = 13.28 s


Moving mesh ...

Iteration 0
Moving mesh using displacement scaling : min:1  max:1
Checking faces in error :
    non-orthogonality > 75  degrees                        : 0
    faces with face pyramid volume < 1e-13                 : 0
    faces with face-decomposition tet quality < 1e-30      : 6
    faces with concavity > 80  degrees                     : 0
    faces with skewness > 4   (internal) or 10  (boundary) : 0
    faces with interpolation weights (0..1)  < 0.05        : 0
    faces with volume ratio of neighbour cells < 0.01      : 0
    faces with face twist < 0.05                           : 0
    faces on cells with determinant < 0.001                : 0

Iteration 1
Moving mesh using displacement scaling : min:0.75  max:1
Checking faces in error :
    non-orthogonality > 75  degrees                        : 0
    faces with face pyramid volume < 1e-13                 : 0
    faces with face-decomposition tet quality < 1e-30      : 4
    faces with concavity > 80  degrees                     : 0
    faces with skewness > 4   (internal) or 10  (boundary) : 0
    faces with interpolation weights (0..1)  < 0.05        : 0
    faces with volume ratio of neighbour cells < 0.01      : 0
    faces with face twist < 0.05                           : 0
    faces on cells with determinant < 0.001                : 0

Iteration 2
Moving mesh using displacement scaling : min:0.5625  max:1
Checking faces in error :
    non-orthogonality > 75  degrees                        : 0
    faces with face pyramid volume < 1e-13                 : 0
    faces with face-decomposition tet quality < 1e-30      : 3
    faces with concavity > 80  degrees                     : 0
    faces with skewness > 4   (internal) or 10  (boundary) : 0
    faces with interpolation weights (0..1)  < 0.05        : 0
    faces with volume ratio of neighbour cells < 0.01      : 0
    faces with face twist < 0.05                           : 0
    faces on cells with determinant < 0.001                : 0

Iteration 3
Moving mesh using displacement scaling : min:0.421875  max:1
Checking faces in error :
    non-orthogonality > 75  degrees                        : 0
    faces with face pyramid volume < 1e-13                 : 0
    faces with face-decomposition tet quality < 1e-30      : 2
    faces with concavity > 80  degrees                     : 0
    faces with skewness > 4   (internal) or 10  (boundary) : 0
    faces with interpolation weights (0..1)  < 0.05        : 0
    faces with volume ratio of neighbour cells < 0.01      : 0
    faces with face twist < 0.05                           : 0
    faces on cells with determinant < 0.001                : 0

Iteration 4
Moving mesh using displacement scaling : min:0.316406  max:1
Checking faces in error :
    non-orthogonality > 75  degrees                        : 0
    faces with face pyramid volume < 1e-13                 : 0
    faces with face-decomposition tet quality < 1e-30      : 2
    faces with concavity > 80  degrees                     : 0
    faces with skewness > 4   (internal) or 10  (boundary) : 0
    faces with interpolation weights (0..1)  < 0.05        : 0
    faces with volume ratio of neighbour cells < 0.01      : 0
    faces with face twist < 0.05                           : 0
    faces on cells with determinant < 0.001                : 0

Iteration 5
Displacement scaling for error reduction set to 0.
Moving mesh using displacement scaling : min:0.237305  max:1
Checking faces in error :
    non-orthogonality > 75  degrees                        : 0
    faces with face pyramid volume < 1e-13                 : 0
    faces with face-decomposition tet quality < 1e-30      : 2
    faces with concavity > 80  degrees                     : 0
    faces with skewness > 4   (internal) or 10  (boundary) : 0
    faces with interpolation weights (0..1)  < 0.05        : 0
    faces with volume ratio of neighbour cells < 0.01      : 0
    faces with face twist < 0.05                           : 0
    faces on cells with determinant < 0.001                : 0

Iteration 6
Moving mesh using displacement scaling : min:0  max:1
Checking faces in error :
    non-orthogonality > 75  degrees                        : 0
    faces with face pyramid volume < 1e-13                 : 0
    faces with face-decomposition tet quality < 1e-30      : 0
    faces with concavity > 80  degrees                     : 0
    faces with skewness > 4   (internal) or 10  (boundary) : 0
    faces with interpolation weights (0..1)  < 0.05        : 0
    faces with volume ratio of neighbour cells < 0.01      : 0
    faces with face twist < 0.05                           : 0
    faces on cells with determinant < 0.001                : 0
Successfully moved mesh
Moved mesh in = 3.51 s



Morph iteration 9
-----------------
Calculating patchDisplacement as distance to nearest surface point ...
    non-zone points : attract to nearest of all non-zone surfaces
    zone points     : attract to zone surface only

Wanted displacement : average:0.000510846 min:5.05117e-08 max:0.00162045
Calculated surface displacement in = 0.07 s


Detecting near surfaces ...
Overriding nearest with intersection of close gaps at 28 out of 250413 points.
Overriding displacement on features :
   implicit features    : false
   explicit features    : true
   multi-patch features : false

Detected 118 baffle edges out of 496346 edges.
Baffle points     : 154 of which attracted to :
    feature point : 0
    feature edge  : 154
    rest          : 0

Initially selected 13059 mesh points out of 250413 for reverse attraction.
Selected 39318 mesh points out of 250413 for reverse attraction.
Stringing feature edges : changed 983 points
Stringing feature edges : changed 2 points
Stringing feature edges : changed 0 points
Attraction:
    linear   : max:(-0.000497081 -0.00151388 -0.000294879) avg:(-1.0468e-06 3.05779e-06 -4.46914e-06)
    feature  : max:(-0.00815738 -0.000177714 0.0149393) avg:(3.30887e-07 1.6985e-07 5.83309e-06)
Feature analysis : total master points :245944 of which attracted to :
    feature point   : 221
    feature edge    : 12472
    nearest surface : 0
    rest            : 233251

--> FOAM Warning : Displacement (1.87943e-06 5.24255e-05 -3.10299e-06) at mesh point 105144 coord (0.823555 -0.573049 0.000752188) points through the surrounding patch faces
Smoothing displacement ...
Iteration 0
Iteration 10
Iteration 20
Iteration 30
Iteration 40
Iteration 50
Iteration 60
Iteration 70
Iteration 80
Iteration 90
Iteration 100
Iteration 110
Iteration 120
Iteration 130
Iteration 140
Iteration 150
Iteration 160
Iteration 170
Iteration 180
Iteration 190
Iteration 200
Iteration 210
Iteration 220
Iteration 230
Iteration 240
Iteration 250
Iteration 260
Iteration 270
Iteration 280
Iteration 290
Iteration 300
Iteration 310
Iteration 320
Iteration 330
Iteration 340
Iteration 350
Iteration 360
Iteration 370
Iteration 380
Iteration 390
Displacement smoothed in = 13.31 s


Moving mesh ...

Iteration 0
Moving mesh using displacement scaling : min:1  max:1
Checking faces in error :
    non-orthogonality > 75  degrees                        : 0
    faces with face pyramid volume < 1e-13                 : 0
    faces with face-decomposition tet quality < 1e-30      : 10
    faces with concavity > 80  degrees                     : 0
    faces with skewness > 4   (internal) or 10  (boundary) : 0
    faces with interpolation weights (0..1)  < 0.05        : 0
    faces with volume ratio of neighbour cells < 0.01      : 0
    faces with face twist < 0.05                           : 1
    faces on cells with determinant < 0.001                : 0

Iteration 1
Moving mesh using displacement scaling : min:0.75  max:1
Checking faces in error :
    non-orthogonality > 75  degrees                        : 0
    faces with face pyramid volume < 1e-13                 : 0
    faces with face-decomposition tet quality < 1e-30      : 7
    faces with concavity > 80  degrees                     : 0
    faces with skewness > 4   (internal) or 10  (boundary) : 0
    faces with interpolation weights (0..1)  < 0.05        : 0
    faces with volume ratio of neighbour cells < 0.01      : 0
    faces with face twist < 0.05                           : 0
    faces on cells with determinant < 0.001                : 0

Iteration 2
Moving mesh using displacement scaling : min:0.5625  max:1
Checking faces in error :
    non-orthogonality > 75  degrees                        : 0
    faces with face pyramid volume < 1e-13                 : 0
    faces with face-decomposition tet quality < 1e-30      : 5
    faces with concavity > 80  degrees                     : 0
    faces with skewness > 4   (internal) or 10  (boundary) : 0
    faces with interpolation weights (0..1)  < 0.05        : 0
    faces with volume ratio of neighbour cells < 0.01      : 0
    faces with face twist < 0.05                           : 1
    faces on cells with determinant < 0.001                : 0

Iteration 3
Moving mesh using displacement scaling : min:0.421875  max:1
Checking faces in error :
    non-orthogonality > 75  degrees                        : 0
    faces with face pyramid volume < 1e-13                 : 0
    faces with face-decomposition tet quality < 1e-30      : 4
    faces with concavity > 80  degrees                     : 0
    faces with skewness > 4   (internal) or 10  (boundary) : 0
    faces with interpolation weights (0..1)  < 0.05        : 0
    faces with volume ratio of neighbour cells < 0.01      : 0
    faces with face twist < 0.05                           : 0
    faces on cells with determinant < 0.001                : 0

Iteration 4
Moving mesh using displacement scaling : min:0.316406  max:1
Checking faces in error :
    non-orthogonality > 75  degrees                        : 0
    faces with face pyramid volume < 1e-13                 : 0
    faces with face-decomposition tet quality < 1e-30      : 3
    faces with concavity > 80  degrees                     : 0
    faces with skewness > 4   (internal) or 10  (boundary) : 0
    faces with interpolation weights (0..1)  < 0.05        : 0
    faces with volume ratio of neighbour cells < 0.01      : 0
    faces with face twist < 0.05                           : 0
    faces on cells with determinant < 0.001                : 0

Iteration 5
Displacement scaling for error reduction set to 0.
Moving mesh using displacement scaling : min:0.237305  max:1
Checking faces in error :
    non-orthogonality > 75  degrees                        : 0
    faces with face pyramid volume < 1e-13                 : 0
    faces with face-decomposition tet quality < 1e-30      : 2
    faces with concavity > 80  degrees                     : 0
    faces with skewness > 4   (internal) or 10  (boundary) : 0
    faces with interpolation weights (0..1)  < 0.05        : 0
    faces with volume ratio of neighbour cells < 0.01      : 0
    faces with face twist < 0.05                           : 0
    faces on cells with determinant < 0.001                : 0

Iteration 6
Moving mesh using displacement scaling : min:0  max:1
Checking faces in error :
    non-orthogonality > 75  degrees                        : 0
    faces with face pyramid volume < 1e-13                 : 0
    faces with face-decomposition tet quality < 1e-30      : 1
    faces with concavity > 80  degrees                     : 0
    faces with skewness > 4   (internal) or 10  (boundary) : 0
    faces with interpolation weights (0..1)  < 0.05        : 0
    faces with volume ratio of neighbour cells < 0.01      : 0
    faces with face twist < 0.05                           : 0
    faces on cells with determinant < 0.001                : 0

Iteration 7
Moving mesh using displacement scaling : min:0  max:1
Checking faces in error :
    non-orthogonality > 75  degrees                        : 0
    faces with face pyramid volume < 1e-13                 : 0
    faces with face-decomposition tet quality < 1e-30      : 0
    faces with concavity > 80  degrees                     : 0
    faces with skewness > 4   (internal) or 10  (boundary) : 0
    faces with interpolation weights (0..1)  < 0.05        : 0
    faces with volume ratio of neighbour cells < 0.01      : 0
    faces with face twist < 0.05                           : 0
    faces on cells with determinant < 0.001                : 0
Successfully moved mesh
Moved mesh in = 3.94 s



Morph iteration 10
-----------------
Calculating patchDisplacement as distance to nearest surface point ...
    non-zone points : attract to nearest of all non-zone surfaces
    zone points     : attract to zone surface only

Wanted displacement : average:0.000390121 min:6.54692e-09 max:0.00162161
Calculated surface displacement in = 0.05 s


Detecting near surfaces ...
Overriding nearest with intersection of close gaps at 29 out of 250413 points.
Overriding displacement on features :
   implicit features    : false
   explicit features    : true
   multi-patch features : false

Detected 138 baffle edges out of 496346 edges.
Baffle points     : 170 of which attracted to :
    feature point : 0
    feature edge  : 170
    rest          : 0

Initially selected 13059 mesh points out of 250413 for reverse attraction.
Selected 39258 mesh points out of 250413 for reverse attraction.
Stringing feature edges : changed 955 points
Stringing feature edges : changed 2 points
Stringing feature edges : changed 0 points
Attraction:
    linear   : max:(-0.00212346 0.000885439 0.000782928) avg:(-6.50675e-07 2.28859e-06 -2.77376e-06)
    feature  : max:(-0.00707909 -0.00134189 0.0167352) avg:(1.43361e-07 1.96684e-07 4.115e-06)
Feature analysis : total master points :245944 of which attracted to :
    feature point   : 220
    feature edge    : 12466
    nearest surface : 0
    rest            : 233258

--> FOAM Warning : Displacement (2.08154e-06 5.87709e-05 -6.37309e-06) at mesh point 105144 coord (0.823557 -0.572997 0.000749085) points through the surrounding patch faces
Smoothing displacement ...
Iteration 0
Iteration 10
Iteration 20
Iteration 30
Iteration 40
Iteration 50
Iteration 60
Iteration 70
Iteration 80
Iteration 90
Iteration 100
Iteration 110
Iteration 120
Iteration 130
Iteration 140
Iteration 150
Iteration 160
Iteration 170
Iteration 180
Iteration 190
Iteration 200
Iteration 210
Iteration 220
Iteration 230
Iteration 240
Iteration 250
Iteration 260
Iteration 270
Iteration 280
Iteration 290
Iteration 300
Iteration 310
Iteration 320
Iteration 330
Iteration 340
Iteration 350
Iteration 360
Iteration 370
Iteration 380
Iteration 390
Displacement smoothed in = 13.27 s


Moving mesh ...

Iteration 0
Moving mesh using displacement scaling : min:1  max:1
Checking faces in error :
    non-orthogonality > 75  degrees                        : 0
    faces with face pyramid volume < 1e-13                 : 0
    faces with face-decomposition tet quality < 1e-30      : 27
    faces with concavity > 80  degrees                     : 1
    faces with skewness > 4   (internal) or 10  (boundary) : 0
    faces with interpolation weights (0..1)  < 0.05        : 0
    faces with volume ratio of neighbour cells < 0.01      : 0
    faces with face twist < 0.05                           : 0
    faces on cells with determinant < 0.001                : 0

Iteration 1
Moving mesh using displacement scaling : min:0.75  max:1
Checking faces in error :
    non-orthogonality > 75  degrees                        : 0
    faces with face pyramid volume < 1e-13                 : 0
    faces with face-decomposition tet quality < 1e-30      : 19
    faces with concavity > 80  degrees                     : 1
    faces with skewness > 4   (internal) or 10  (boundary) : 0
    faces with interpolation weights (0..1)  < 0.05        : 0
    faces with volume ratio of neighbour cells < 0.01      : 0
    faces with face twist < 0.05                           : 2
    faces on cells with determinant < 0.001                : 0

Iteration 2
Moving mesh using displacement scaling : min:0.5625  max:1
Checking faces in error :
    non-orthogonality > 75  degrees                        : 0
    faces with face pyramid volume < 1e-13                 : 0
    faces with face-decomposition tet quality < 1e-30      : 7
    faces with concavity > 80  degrees                     : 0
    faces with skewness > 4   (internal) or 10  (boundary) : 0
    faces with interpolation weights (0..1)  < 0.05        : 0
    faces with volume ratio of neighbour cells < 0.01      : 0
    faces with face twist < 0.05                           : 1
    faces on cells with determinant < 0.001                : 0

Iteration 3
Moving mesh using displacement scaling : min:0.421875  max:1
Checking faces in error :
    non-orthogonality > 75  degrees                        : 0
    faces with face pyramid volume < 1e-13                 : 0
    faces with face-decomposition tet quality < 1e-30      : 6
    faces with concavity > 80  degrees                     : 0
    faces with skewness > 4   (internal) or 10  (boundary) : 0
    faces with interpolation weights (0..1)  < 0.05        : 0
    faces with volume ratio of neighbour cells < 0.01      : 0
    faces with face twist < 0.05                           : 1
    faces on cells with determinant < 0.001                : 0

Iteration 4
Moving mesh using displacement scaling : min:0.316406  max:1
Checking faces in error :
    non-orthogonality > 75  degrees                        : 0
    faces with face pyramid volume < 1e-13                 : 0
    faces with face-decomposition tet quality < 1e-30      : 6
    faces with concavity > 80  degrees                     : 0
    faces with skewness > 4   (internal) or 10  (boundary) : 0
    faces with interpolation weights (0..1)  < 0.05        : 0
    faces with volume ratio of neighbour cells < 0.01      : 0
    faces with face twist < 0.05                           : 0
    faces on cells with determinant < 0.001                : 0

Iteration 5
Displacement scaling for error reduction set to 0.
Moving mesh using displacement scaling : min:0.237305  max:1
Checking faces in error :
    non-orthogonality > 75  degrees                        : 0
    faces with face pyramid volume < 1e-13                 : 0
    faces with face-decomposition tet quality < 1e-30      : 5
    faces with concavity > 80  degrees                     : 0
    faces with skewness > 4   (internal) or 10  (boundary) : 0
    faces with interpolation weights (0..1)  < 0.05        : 0
    faces with volume ratio of neighbour cells < 0.01      : 0
    faces with face twist < 0.05                           : 0
    faces on cells with determinant < 0.001                : 0

Iteration 6
Moving mesh using displacement scaling : min:0  max:1
Checking faces in error :
    non-orthogonality > 75  degrees                        : 0
    faces with face pyramid volume < 1e-13                 : 0
    faces with face-decomposition tet quality < 1e-30      : 1
    faces with concavity > 80  degrees                     : 0
    faces with skewness > 4   (internal) or 10  (boundary) : 0
    faces with interpolation weights (0..1)  < 0.05        : 0
    faces with volume ratio of neighbour cells < 0.01      : 0
    faces with face twist < 0.05                           : 0
    faces on cells with determinant < 0.001                : 0

Iteration 7
Moving mesh using displacement scaling : min:0  max:1
Checking faces in error :
    non-orthogonality > 75  degrees                        : 0
    faces with face pyramid volume < 1e-13                 : 0
    faces with face-decomposition tet quality < 1e-30      : 0
    faces with concavity > 80  degrees                     : 0
    faces with skewness > 4   (internal) or 10  (boundary) : 0
    faces with interpolation weights (0..1)  < 0.05        : 0
    faces with volume ratio of neighbour cells < 0.01      : 0
    faces with face twist < 0.05                           : 0
    faces on cells with determinant < 0.001                : 0
Successfully moved mesh
Moved mesh in = 4.01 s



Morph iteration 11
-----------------
Calculating patchDisplacement as distance to nearest surface point ...
    non-zone points : attract to nearest of all non-zone surfaces
    zone points     : attract to zone surface only

Wanted displacement : average:0.000290823 min:6.69813e-09 max:0.00162289
Calculated surface displacement in = 0.04 s


Detecting near surfaces ...
Overriding nearest with intersection of close gaps at 30 out of 250413 points.
Overriding displacement on features :
   implicit features    : false
   explicit features    : true
   multi-patch features : false

Detected 141 baffle edges out of 496346 edges.
Baffle points     : 173 of which attracted to :
    feature point : 0
    feature edge  : 173
    rest          : 0

Initially selected 13050 mesh points out of 250413 for reverse attraction.
Selected 39234 mesh points out of 250413 for reverse attraction.
Stringing feature edges : changed 923 points
Stringing feature edges : changed 2 points
Stringing feature edges : changed 0 points
Attraction:
    linear   : max:(0.00165599 0.000841609 -0.000143357) avg:(-3.16357e-07 1.62629e-06 -1.3779e-06)
    feature  : max:(-0.00858819 -0.00257544 0.0160498) avg:(5.55807e-08 1.69966e-07 2.91666e-06)
Feature analysis : total master points :245944 of which attracted to :
    feature point   : 229
    feature edge    : 12463
    nearest surface : 0
    rest            : 233252

--> FOAM Warning : Displacement (2.24828e-06 6.40763e-05 -9.36324e-06) at mesh point 105144 coord (0.823559 -0.572938 0.000742712) points through the surrounding patch faces
Smoothing displacement ...
Iteration 0
Iteration 10
Iteration 20
Iteration 30
Iteration 40
Iteration 50
Iteration 60
Iteration 70
Iteration 80
Iteration 90
Iteration 100
Iteration 110
Iteration 120
Iteration 130
Iteration 140
Iteration 150
Iteration 160
Iteration 170
Iteration 180
Iteration 190
Iteration 200
Iteration 210
Iteration 220
Iteration 230
Iteration 240
Iteration 250
Iteration 260
Iteration 270
Iteration 280
Iteration 290
Iteration 300
Iteration 310
Iteration 320
Iteration 330
Iteration 340
Iteration 350
Iteration 360
Iteration 370
Iteration 380
Iteration 390
Displacement smoothed in = 13.24 s


Moving mesh ...

Iteration 0
Moving mesh using displacement scaling : min:1  max:1
Checking faces in error :
    non-orthogonality > 75  degrees                        : 0
    faces with face pyramid volume < 1e-13                 : 0
    faces with face-decomposition tet quality < 1e-30      : 27
    faces with concavity > 80  degrees                     : 2
    faces with skewness > 4   (internal) or 10  (boundary) : 0
    faces with interpolation weights (0..1)  < 0.05        : 0
    faces with volume ratio of neighbour cells < 0.01      : 0
    faces with face twist < 0.05                           : 2
    faces on cells with determinant < 0.001                : 0

Iteration 1
Moving mesh using displacement scaling : min:0.75  max:1
Checking faces in error :
    non-orthogonality > 75  degrees                        : 0
    faces with face pyramid volume < 1e-13                 : 0
    faces with face-decomposition tet quality < 1e-30      : 25
    faces with concavity > 80  degrees                     : 2
    faces with skewness > 4   (internal) or 10  (boundary) : 0
    faces with interpolation weights (0..1)  < 0.05        : 0
    faces with volume ratio of neighbour cells < 0.01      : 0
    faces with face twist < 0.05                           : 2
    faces on cells with determinant < 0.001                : 0

Iteration 2
Moving mesh using displacement scaling : min:0.5625  max:1
Checking faces in error :
    non-orthogonality > 75  degrees                        : 0
    faces with face pyramid volume < 1e-13                 : 0
    faces with face-decomposition tet quality < 1e-30      : 20
    faces with concavity > 80  degrees                     : 1
    faces with skewness > 4   (internal) or 10  (boundary) : 0
[...]
    faces on cells with determinant < 0.001                : 0
displacementMedialAxis : Iteration 4
Moving mesh using displacement scaling : min:0.316406  max:1
Checking faces in error :
    non-orthogonality > 75  degrees                        : 0
    faces with face pyramid volume < 1e-13                 : 0
    faces with face-decomposition tet quality < 1e-30      : 11
    faces with concavity > 80  degrees                     : 0
    faces with skewness > 4   (internal) or 10  (boundary) : 0
    faces with interpolation weights (0..1)  < 0.05        : 0
    faces with volume ratio of neighbour cells < 0.01      : 0
    faces with face twist < 0.05                           : 0
    faces on cells with determinant < 0.001                : 0
displacementMedialAxis : Iteration 5
Moving mesh using displacement scaling : min:0.237305  max:1
Checking faces in error :
    non-orthogonality > 75  degrees                        : 0
    faces with face pyramid volume < 1e-13                 : 0
    faces with face-decomposition tet quality < 1e-30      : 7
    faces with concavity > 80  degrees                     : 0
    faces with skewness > 4   (internal) or 10  (boundary) : 0
    faces with interpolation weights (0..1)  < 0.05        : 0
    faces with volume ratio of neighbour cells < 0.01      : 0
    faces with face twist < 0.05                           : 0
    faces on cells with determinant < 0.001                : 0
displacementMedialAxis : Iteration 6
Moving mesh using displacement scaling : min:0.177979  max:1
Checking faces in error :
    non-orthogonality > 75  degrees                        : 0
    faces with face pyramid volume < 1e-13                 : 0
    faces with face-decomposition tet quality < 1e-30      : 6
    faces with concavity > 80  degrees                     : 0
    faces with skewness > 4   (internal) or 10  (boundary) : 0
    faces with interpolation weights (0..1)  < 0.05        : 0
    faces with volume ratio of neighbour cells < 0.01      : 0
    faces with face twist < 0.05                           : 0
    faces on cells with determinant < 0.001                : 0
displacementMedialAxis : Iteration 7
Moving mesh using displacement scaling : min:0.133484  max:1
Checking faces in error :
    non-orthogonality > 75  degrees                        : 0
    faces with face pyramid volume < 1e-13                 : 0
    faces with face-decomposition tet quality < 1e-30      : 5
    faces with concavity > 80  degrees                     : 0
    faces with skewness > 4   (internal) or 10  (boundary) : 0
    faces with interpolation weights (0..1)  < 0.05        : 0
    faces with volume ratio of neighbour cells < 0.01      : 0
    faces with face twist < 0.05                           : 0
    faces on cells with determinant < 0.001                : 0
displacementMedialAxis : Iteration 8
Moving mesh using displacement scaling : min:0.100113  max:1
Checking faces in error :
    non-orthogonality > 75  degrees                        : 0
    faces with face pyramid volume < 1e-13                 : 0
    faces with face-decomposition tet quality < 1e-30      : 5
    faces with concavity > 80  degrees                     : 0
    faces with skewness > 4   (internal) or 10  (boundary) : 0
    faces with interpolation weights (0..1)  < 0.05        : 0
    faces with volume ratio of neighbour cells < 0.01      : 0
    faces with face twist < 0.05                           : 0
    faces on cells with determinant < 0.001                : 0
displacementMedialAxis : Iteration 9
Moving mesh using displacement scaling : min:0.0750847  max:1
Checking faces in error :
    non-orthogonality > 75  degrees                        : 0
    faces with face pyramid volume < 1e-13                 : 0
    faces with face-decomposition tet quality < 1e-30      : 5
    faces with concavity > 80  degrees                     : 0
    faces with skewness > 4   (internal) or 10  (boundary) : 0
    faces with interpolation weights (0..1)  < 0.05        : 0
    faces with volume ratio of neighbour cells < 0.01      : 0
    faces with face twist < 0.05                           : 0
    faces on cells with determinant < 0.001                : 0
displacementMedialAxis : Iteration 10
displacementMedialAxis : Displacement scaling for error reduction set to 0.
Moving mesh using displacement scaling : min:0.0563135  max:1
Checking faces in error :
    non-orthogonality > 75  degrees                        : 0
    faces with face pyramid volume < 1e-13                 : 0
    faces with face-decomposition tet quality < 1e-30      : 5
    faces with concavity > 80  degrees                     : 0
    faces with skewness > 4   (internal) or 10  (boundary) : 0
    faces with interpolation weights (0..1)  < 0.05        : 0
    faces with volume ratio of neighbour cells < 0.01      : 0
    faces with face twist < 0.05                           : 0
    faces on cells with determinant < 0.001                : 0
displacementMedialAxis : Iteration 11
Moving mesh using displacement scaling : min:0  max:1
Checking faces in error :
    non-orthogonality > 75  degrees                        : 0
    faces with face pyramid volume < 1e-13                 : 0
    faces with face-decomposition tet quality < 1e-30      : 1
    faces with concavity > 80  degrees                     : 0
    faces with skewness > 4   (internal) or 10  (boundary) : 0
    faces with interpolation weights (0..1)  < 0.05        : 0
    faces with volume ratio of neighbour cells < 0.01      : 0
    faces with face twist < 0.05                           : 0
    faces on cells with determinant < 0.001                : 0
displacementMedialAxis : Iteration 12
Moving mesh using displacement scaling : min:0  max:1
Checking faces in error :
    non-orthogonality > 75  degrees                        : 0
    faces with face pyramid volume < 1e-13                 : 0
    faces with face-decomposition tet quality < 1e-30      : 0
    faces with concavity > 80  degrees                     : 0
    faces with skewness > 4   (internal) or 10  (boundary) : 0
    faces with interpolation weights (0..1)  < 0.05        : 0
    faces with volume ratio of neighbour cells < 0.01      : 0
    faces with face twist < 0.05                           : 0
    faces on cells with determinant < 0.001                : 0
displacementMedialAxis : Successfully moved mesh
displacementMedialAxis : Finished moving mesh ...
truncateDisplacement : Unextruded 0 faces due to non-consecutive vertices being extruded.
truncateDisplacement : Unextruded 0 faces due to stringed edges with inconsistent extrusion.

Setting up information for layer truncation ...
Detected 0 baffles across faceZones of type internal


Checking mesh with layer ...
Checking faces in error :
    non-orthogonality > 75  degrees                        : 0
    faces with face pyramid volume < 1e-13                 : 0
    faces with face-decomposition tet quality < 1e-30      : 1
    faces with concavity > 80  degrees                     : 0
    faces with skewness > 4   (internal) or 10  (boundary) : 0
    faces with interpolation weights (0..1)  < 0.05        : 0
    faces with volume ratio of neighbour cells < 0.01      : 0
    faces with face twist < 0.05                           : 0
    faces on cells with determinant < 0.001                : 0
Detected 1 illegal faces (concave, zero area or negative cell pyramid volume)
Extruding 191324 out of 202021 faces (94.705%). Removed extrusion at 1 faces.
Added 715577 out of 808084 cells (88.5523%).


Layer addition iteration 230
--------------------------
Switched to relaxed meshQuality constraints.

Determining displacement for added points according to pointNormal ...
Detected 0 points with point normal pointing through faces.
Reset displacement at 0 points to average of surrounding points.

displacementMedialAxis : Smoothing using Medial Axis ...
displacementMedialAxis : Reducing layer thickness at 0 nodes where thickness to medial axis distance is large 
displacementMedialAxis : Removing isolated regions ...
- if partially extruded faces make angle < 87.5
- if exclusively surrounded by non-extruded faces
displacementMedialAxis : Number of isolated points extrusion stopped : 0
fieldSmoother : Smoothing field ...
    Iteration 0   residual 6.86961e-06
    Iteration 10   residual 3.12417e-06
displacementMedialAxis : Moving mesh ...
displacementMedialAxis : Iteration 0
Moving mesh using displacement scaling : min:1  max:1
Checking faces in error :
    non-orthogonality > 75  degrees                        : 3
    faces with face pyramid volume < 1e-13                 : 0
    faces with face-decomposition tet quality < 1e-30      : 105
    faces with concavity > 80  degrees                     : 0
    faces with skewness > 4   (internal) or 10  (boundary) : 0
    faces with interpolation weights (0..1)  < 0.05        : 0
    faces with volume ratio of neighbour cells < 0.01      : 0
    faces with face twist < 0.05                           : 12
    faces on cells with determinant < 0.001                : 0
displacementMedialAxis : Iteration 1
Moving mesh using displacement scaling : min:0.75  max:1
Checking faces in error :
    non-orthogonality > 75  degrees                        : 0
    faces with face pyramid volume < 1e-13                 : 0
    faces with face-decomposition tet quality < 1e-30      : 46
    faces with concavity > 80  degrees                     : 0
    faces with skewness > 4   (internal) or 10  (boundary) : 0
    faces with interpolation weights (0..1)  < 0.05        : 0
    faces with volume ratio of neighbour cells < 0.01      : 0
    faces with face twist < 0.05                           : 1
    faces on cells with determinant < 0.001                : 0
displacementMedialAxis : Iteration 2
Moving mesh using displacement scaling : min:0.5625  max:1
Checking faces in error :
    non-orthogonality > 75  degrees                        : 0
    faces with face pyramid volume < 1e-13                 : 0
    faces with face-decomposition tet quality < 1e-30      : 19
    faces with concavity > 80  degrees                     : 0
    faces with skewness > 4   (internal) or 10  (boundary) : 0
    faces with interpolation weights (0..1)  < 0.05        : 0
    faces with volume ratio of neighbour cells < 0.01      : 0
    faces with face twist < 0.05                           : 0
    faces on cells with determinant < 0.001                : 0
displacementMedialAxis : Iteration 3
Moving mesh using displacement scaling : min:0.421875  max:1
Checking faces in error :
    non-orthogonality > 75  degrees                        : 0
    faces with face pyramid volume < 1e-13                 : 0
    faces with face-decomposition tet quality < 1e-30      : 14
    faces with concavity > 80  degrees                     : 0
    faces with skewness > 4   (internal) or 10  (boundary) : 0
    faces with interpolation weights (0..1)  < 0.05        : 0
    faces with volume ratio of neighbour cells < 0.01      : 0
    faces with face twist < 0.05                           : 0
    faces on cells with determinant < 0.001                : 0
displacementMedialAxis : Iteration 4
Moving mesh using displacement scaling : min:0.316406  max:1
Checking faces in error :
    non-orthogonality > 75  degrees                        : 0
    faces with face pyramid volume < 1e-13                 : 0
    faces with face-decomposition tet quality < 1e-30      : 11
    faces with concavity > 80  degrees                     : 0
    faces with skewness > 4   (internal) or 10  (boundary) : 0
    faces with interpolation weights (0..1)  < 0.05        : 0
    faces with volume ratio of neighbour cells < 0.01      : 0
    faces with face twist < 0.05                           : 0
    faces on cells with determinant < 0.001                : 0
displacementMedialAxis : Iteration 5
Moving mesh using displacement scaling : min:0.237305  max:1
Checking faces in error :
    non-orthogonality > 75  degrees                        : 0
    faces with face pyramid volume < 1e-13                 : 0
    faces with face-decomposition tet quality < 1e-30      : 7
    faces with concavity > 80  degrees                     : 0
    faces with skewness > 4   (internal) or 10  (boundary) : 0
    faces with interpolation weights (0..1)  < 0.05        : 0
    faces with volume ratio of neighbour cells < 0.01      : 0
    faces with face twist < 0.05                           : 0
    faces on cells with determinant < 0.001                : 0
displacementMedialAxis : Iteration 6
Moving mesh using displacement scaling : min:0.177979  max:1
Checking faces in error :
    non-orthogonality > 75  degrees                        : 0
    faces with face pyramid volume < 1e-13                 : 0
    faces with face-decomposition tet quality < 1e-30      : 6
    faces with concavity > 80  degrees                     : 0
    faces with skewness > 4   (internal) or 10  (boundary) : 0
    faces with interpolation weights (0..1)  < 0.05        : 0
    faces with volume ratio of neighbour cells < 0.01      : 0
    faces with face twist < 0.05                           : 0
    faces on cells with determinant < 0.001                : 0
displacementMedialAxis : Iteration 7
Moving mesh using displacement scaling : min:0.133484  max:1
Checking faces in error :
    non-orthogonality > 75  degrees                        : 0
    faces with face pyramid volume < 1e-13                 : 0
    faces with face-decomposition tet quality < 1e-30      : 5
    faces with concavity > 80  degrees                     : 0
    faces with skewness > 4   (internal) or 10  (boundary) : 0
    faces with interpolation weights (0..1)  < 0.05        : 0
    faces with volume ratio of neighbour cells < 0.01      : 0
    faces with face twist < 0.05                           : 0
    faces on cells with determinant < 0.001                : 0
displacementMedialAxis : Iteration 8
Moving mesh using displacement scaling : min:0.100113  max:1
Checking faces in error :
    non-orthogonality > 75  degrees                        : 0
    faces with face pyramid volume < 1e-13                 : 0
    faces with face-decomposition tet quality < 1e-30      : 5
    faces with concavity > 80  degrees                     : 0
    faces with skewness > 4   (internal) or 10  (boundary) : 0
    faces with interpolation weights (0..1)  < 0.05        : 0
    faces with volume ratio of neighbour cells < 0.01      : 0
    faces with face twist < 0.05                           : 0
    faces on cells with determinant < 0.001                : 0
displacementMedialAxis : Iteration 9
Moving mesh using displacement scaling : min:0.0750847  max:1
Checking faces in error :
    non-orthogonality > 75  degrees                        : 0
    faces with face pyramid volume < 1e-13                 : 0
    faces with face-decomposition tet quality < 1e-30      : 5
    faces with concavity > 80  degrees                     : 0
    faces with skewness > 4   (internal) or 10  (boundary) : 0
    faces with interpolation weights (0..1)  < 0.05        : 0
    faces with volume ratio of neighbour cells < 0.01      : 0
    faces with face twist < 0.05                           : 0
    faces on cells with determinant < 0.001                : 0
displacementMedialAxis : Iteration 10
displacementMedialAxis : Displacement scaling for error reduction set to 0.
Moving mesh using displacement scaling : min:0.0563135  max:1
Checking faces in error :
    non-orthogonality > 75  degrees                        : 0
    faces with face pyramid volume < 1e-13                 : 0
    faces with face-decomposition tet quality < 1e-30      : 5
    faces with concavity > 80  degrees                     : 0
    faces with skewness > 4   (internal) or 10  (boundary) : 0
    faces with interpolation weights (0..1)  < 0.05        : 0
    faces with volume ratio of neighbour cells < 0.01      : 0
    faces with face twist < 0.05                           : 0
    faces on cells with determinant < 0.001                : 0
displacementMedialAxis : Iteration 11
Moving mesh using displacement scaling : min:0  max:1
Checking faces in error :
    non-orthogonality > 75  degrees                        : 0
    faces with face pyramid volume < 1e-13                 : 0
    faces with face-decomposition tet quality < 1e-30      : 1
    faces with concavity > 80  degrees                     : 0
    faces with skewness > 4   (internal) or 10  (boundary) : 0
    faces with interpolation weights (0..1)  < 0.05        : 0
    faces with volume ratio of neighbour cells < 0.01      : 0
    faces with face twist < 0.05                           : 0
    faces on cells with determinant < 0.001                : 0
displacementMedialAxis : Iteration 12
Moving mesh using displacement scaling : min:0  max:1
Checking faces in error :
    non-orthogonality > 75  degrees                        : 0
    faces with face pyramid volume < 1e-13                 : 0
    faces with face-decomposition tet quality < 1e-30      : 0
    faces with concavity > 80  degrees                     : 0
    faces with skewness > 4   (internal) or 10  (boundary) : 0
    faces with interpolation weights (0..1)  < 0.05        : 0
    faces with volume ratio of neighbour cells < 0.01      : 0
    faces with face twist < 0.05                           : 0
    faces on cells with determinant < 0.001                : 0
displacementMedialAxis : Successfully moved mesh
displacementMedialAxis : Finished moving mesh ...
truncateDisplacement : Unextruded 0 faces due to non-consecutive vertices being extruded.
truncateDisplacement : Unextruded 0 faces due to stringed edges with inconsistent extrusion.

Setting up information for layer truncation ...
Detected 0 baffles across faceZones of type internal


Checking mesh with layer ...
Checking faces in error :
    non-orthogonality > 75  degrees                        : 0
    faces with face pyramid volume < 1e-13                 : 0
    faces with face-decomposition tet quality < 1e-30      : 0
    faces with concavity > 80  degrees                     : 0
    faces with skewness > 4   (internal) or 10  (boundary) : 0
    faces with interpolation weights (0..1)  < 0.05        : 0
    faces with volume ratio of neighbour cells < 0.01      : 0
    faces with face twist < 0.05                           : 0
    faces on cells with determinant < 0.001                : 0
Detected 0 illegal faces (concave, zero area or negative cell pyramid volume)
Extruding 191324 out of 202021 faces (94.705%). Removed extrusion at 0 faces.
Added 715570 out of 808084 cells (88.5514%).
Edge intersection testing:
    Number of edges             : 6969187
    Number of edges to retest   : 0
    Number of intersected edges : 917605

patch faces    layers   overall thickness
                       [m]       [%]
----- -----    ------   ---       ---
hull 202021   3.54     0.00156   88.7    


Doing final balancing
---------------------

Layer mesh : cells:2221367  faces:6969187  points:2539917
Cells per refinement level:
    0	822653
    1	145232
    2	1253482
Writing mesh to time constant
Wrote mesh in = 2403.66 s.
Layers added in = 2403.66 s.
Checking final mesh ...
Checking faces in error :
    non-orthogonality > 75  degrees                        : 0
    faces with face pyramid volume < 1e-13                 : 0
    faces with face-decomposition tet quality < 1e-30      : 0
    faces with concavity > 80  degrees                     : 0
    faces with skewness > 4   (internal) or 10  (boundary) : 0
    faces with interpolation weights (0..1)  < 0.05        : 0
    faces with volume ratio of neighbour cells < 0.01      : 0
    faces with face twist < 0.05                           : 0
    faces on cells with determinant < 0.001                : 0
Finished meshing without any errors
Finished meshing in = 3215.07 s.
End

Finalising parallel run
